!-Generator IDFEditor 1.48
!-Option SortedOrder

!-NOTE: All comments with '!-' are ignored by the IDFEditor and are generated automatically.
!-      Use '!' comments if they need to be retained when using the IDFEditor.


!-   ===========  ALL OBJECTS IN CLASS: VERSION ===========

Version,
    8.5;                     !- Version Identifier


!-   ===========  ALL OBJECTS IN CLASS: SIMULATIONCONTROL ===========

SimulationControl,
    No,                      !- Do Zone Sizing Calculation
    No,                      !- Do System Sizing Calculation
    No,                      !- Do Plant Sizing Calculation
    No,                      !- Run Simulation for Sizing Periods
    Yes;                     !- Run Simulation for Weather File Run Periods


!-   ===========  ALL OBJECTS IN CLASS: BUILDING ===========

Building,
    BLDG26,                  !- Name
    0,                       !- North Axis {deg}
    Suburbs,                 !- Terrain
    0.04,                    !- Loads Convergence Tolerance Value
    0.4,                     !- Temperature Convergence Tolerance Value {deltaC}
    MinimalShadowing,        !- Solar Distribution
    25,                      !- Maximum Number of Warmup Days
    6;                       !- Minimum Number of Warmup Days


!-   ===========  ALL OBJECTS IN CLASS: SHADOWCALCULATION ===========

ShadowCalculation,
    AverageOverDaysInFrequency,  !- Calculation Method
    20,                      !- Calculation Frequency
    200;                     !- Maximum Figures in Shadow Overlap Calculations


!-   ===========  ALL OBJECTS IN CLASS: SURFACECONVECTIONALGORITHM:INSIDE ===========

SurfaceConvectionAlgorithm:Inside,
    TARP;                    !- Algorithm


!-   ===========  ALL OBJECTS IN CLASS: SURFACECONVECTIONALGORITHM:OUTSIDE ===========

SurfaceConvectionAlgorithm:Outside,
    TARP;                    !- Algorithm


!-   ===========  ALL OBJECTS IN CLASS: HEATBALANCEALGORITHM ===========

HeatBalanceAlgorithm,
    ConductionTransferFunction,  !- Algorithm
    2000;                    !- Surface Temperature Upper Limit {C}


!-   ===========  ALL OBJECTS IN CLASS: ZONEAIRCONTAMINANTBALANCE ===========

ZoneAirContaminantBalance,
    Yes,                     !- Carbon Dioxide Concentration
    Outdoor CO2,             !- Outdoor Carbon Dioxide Schedule Name
    No;                      !- Generic Contaminant Concentration


!-   ===========  ALL OBJECTS IN CLASS: ZONECAPACITANCEMULTIPLIER:RESEARCHSPECIAL ===========

ZoneCapacitanceMultiplier:ResearchSpecial,
    1.0,                     !- Temperature Capacity Multiplier
    1.0,                     !- Humidity Capacity Multiplier
    1.0,                     !- Carbon Dioxide Capacity Multiplier
    1.0;                     !- Generic Contaminant Capacity Multiplier


!-   ===========  ALL OBJECTS IN CLASS: TIMESTEP ===========

Timestep,
    4;                       !- Number of Timesteps per Hour


!-   ===========  ALL OBJECTS IN CLASS: CONVERGENCELIMITS ===========

ConvergenceLimits,
    1,                       !- Minimum System Timestep {minutes}
    20;                      !- Maximum HVAC Iterations


!-   ===========  ALL OBJECTS IN CLASS: SITE:LOCATION ===========

Site:Location,
    Chicago Ohare Intl Ap_IL_USA Design_Conditions,  !- Name
    41.98,                   !- Latitude {deg}
    -87.92,                  !- Longitude {deg}
    -6.00,                   !- Time Zone {hr}
    201.00;                  !- Elevation {m}


!-   ===========  ALL OBJECTS IN CLASS: SIZINGPERIOD:DESIGNDAY ===========

SizingPeriod:DesignDay,
    Chicago Ohare Intl Ap Ann Htg 99.6% Condns DB,  !- Name
    1,                       !- Month
    21,                      !- Day of Month
    WinterDesignDay,         !- Day Type
    -20,                     !- Maximum Dry-Bulb Temperature {C}
    0.0,                     !- Daily Dry-Bulb Temperature Range {deltaC}
    DefaultMultipliers,      !- Dry-Bulb Temperature Range Modifier Type
    ,                        !- Dry-Bulb Temperature Range Modifier Day Schedule Name
    Wetbulb,                 !- Humidity Condition Type
    -20,                     !- Wetbulb or DewPoint at Maximum Dry-Bulb {C}
    ,                        !- Humidity Condition Day Schedule Name
    ,                        !- Humidity Ratio at Maximum Dry-Bulb {kgWater/kgDryAir}
    ,                        !- Enthalpy at Maximum Dry-Bulb {J/kg}
    ,                        !- Daily Wet-Bulb Temperature Range {deltaC}
    98934.,                  !- Barometric Pressure {Pa}
    4.9,                     !- Wind Speed {m/s}
    270,                     !- Wind Direction {deg}
    No,                      !- Rain Indicator
    No,                      !- Snow Indicator
    No,                      !- Daylight Saving Time Indicator
    ASHRAEClearSky,          !- Solar Model Indicator
    ,                        !- Beam Solar Day Schedule Name
    ,                        !- Diffuse Solar Day Schedule Name
    ,                        !- ASHRAE Clear Sky Optical Depth for Beam Irradiance (taub) {dimensionless}
    ,                        !- ASHRAE Clear Sky Optical Depth for Diffuse Irradiance (taud) {dimensionless}
    0.00;                    !- Sky Clearness

SizingPeriod:DesignDay,
    Chicago Ohare Intl Ap Ann Clg .4% Condns DB=>MWB,  !- Name
    7,                       !- Month
    21,                      !- Day of Month
    SummerDesignDay,         !- Day Type
    33.3,                    !- Maximum Dry-Bulb Temperature {C}
    10.5,                    !- Daily Dry-Bulb Temperature Range {deltaC}
    DefaultMultipliers,      !- Dry-Bulb Temperature Range Modifier Type
    ,                        !- Dry-Bulb Temperature Range Modifier Day Schedule Name
    Wetbulb,                 !- Humidity Condition Type
    23.7,                    !- Wetbulb or DewPoint at Maximum Dry-Bulb {C}
    ,                        !- Humidity Condition Day Schedule Name
    ,                        !- Humidity Ratio at Maximum Dry-Bulb {kgWater/kgDryAir}
    ,                        !- Enthalpy at Maximum Dry-Bulb {J/kg}
    ,                        !- Daily Wet-Bulb Temperature Range {deltaC}
    98934.,                  !- Barometric Pressure {Pa}
    5.2,                     !- Wind Speed {m/s}
    230,                     !- Wind Direction {deg}
    No,                      !- Rain Indicator
    No,                      !- Snow Indicator
    No,                      !- Daylight Saving Time Indicator
    ASHRAETau,               !- Solar Model Indicator
    ,                        !- Beam Solar Day Schedule Name
    ,                        !- Diffuse Solar Day Schedule Name
    0.455,                   !- ASHRAE Clear Sky Optical Depth for Beam Irradiance (taub) {dimensionless}
    2.050;                   !- ASHRAE Clear Sky Optical Depth for Diffuse Irradiance (taud) {dimensionless}


!-   ===========  ALL OBJECTS IN CLASS: RUNPERIOD ===========

!SizingPeriod:DesignDay,
!    Winter Design Day in BL26test,  !- Name
!    -20.6,                   !- Maximum Dry-Bulb Temperature {C}
!    0,                       !- Daily Temperature Range {deltaC}
!    -20.6,                   !- Humidity Indicating Conditions at Maximum Dry-Bulb
!    99064.5,                 !- Barometric Pressure {Pa}
!    12.8,                    !- Wind Speed {m/s}
!    0,                       !- Wind Direction {deg}
!    0,                       !- Sky Clearness
!    0,                       !- Rain Indicator
!    0,                       !- Snow Indicator
!    15,                      !- Day of Month
!    1,                       !- Month
!    WinterDesignDay,         !- Day Type
!    0,                       !- Daylight Saving Time Indicator
!    WetBulb;                 !- Humidity Indicating Type
RunPeriod,
    BLDG26Test-Summer,       !- Name
    1,                       !- Begin Month
    1,                       !- Begin Day of Month
    1,                       !- End Month
    7,                       !- End Day of Month
    Sunday,                  !- Day of Week for Start Day
    No,                      !- Use Weather File Holidays and Special Days
    No,                      !- Use Weather File Daylight Saving Period
    No,                      !- Apply Weekend Holiday Rule
    Yes,                     !- Use Weather File Rain Indicators
    Yes,                     !- Use Weather File Snow Indicators
    1;                       !- Number of Times Runperiod to be Repeated


!-   ===========  ALL OBJECTS IN CLASS: RUNPERIODCONTROL:SPECIALDAYS ===========

! US National Holidays
RunPeriodControl:SpecialDays,
    New Years Day,           !- Name
    January 1,               !- Start Date
    1,                       !- Duration {days}
    Holiday;                 !- Special Day Type

RunPeriodControl:SpecialDays,
    Veterans Day,            !- Name
    November 11,             !- Start Date
    1,                       !- Duration {days}
    Holiday;                 !- Special Day Type

RunPeriodControl:SpecialDays,
    Christmas,               !- Name
    December 25,             !- Start Date
    1,                       !- Duration {days}
    Holiday;                 !- Special Day Type

RunPeriodControl:SpecialDays,
    Independence Day,        !- Name
    July 4,                  !- Start Date
    1,                       !- Duration {days}
    Holiday;                 !- Special Day Type

RunPeriodControl:SpecialDays,
    MLK Day,                 !- Name
    3rd Monday in January,   !- Start Date
    1,                       !- Duration {days}
    Holiday;                 !- Special Day Type

RunPeriodControl:SpecialDays,
    Presidents Day,          !- Name
    3rd Monday in February,  !- Start Date
    1,                       !- Duration {days}
    Holiday;                 !- Special Day Type

RunPeriodControl:SpecialDays,
    Memorial Day,            !- Name
    Last Monday in May,      !- Start Date
    1,                       !- Duration {days}
    Holiday;                 !- Special Day Type

RunPeriodControl:SpecialDays,
    Labor Day,               !- Name
    1st Monday in September, !- Start Date
    1,                       !- Duration {days}
    Holiday;                 !- Special Day Type

RunPeriodControl:SpecialDays,
    Columbus Day,            !- Name
    2nd Monday in October,   !- Start Date
    1,                       !- Duration {days}
    Holiday;                 !- Special Day Type

RunPeriodControl:SpecialDays,
    Thanksgiving,            !- Name
    4th Thursday in November,!- Start Date
    1,                       !- Duration {days}
    Holiday;                 !- Special Day Type


!-   ===========  ALL OBJECTS IN CLASS: RUNPERIODCONTROL:DAYLIGHTSAVINGTIME ===========

RunPeriodControl:DaylightSavingTime,
    2nd Sunday in March,     !- Start Date
    1st Sunday in November;  !- End Date


!-   ===========  ALL OBJECTS IN CLASS: SITE:GROUNDTEMPERATURE:BUILDINGSURFACE ===========

Site:GroundTemperature:BuildingSurface,
    19.527,                  !- January Ground Temperature {C}
    19.502,                  !- February Ground Temperature {C}
    19.536,                  !- March Ground Temperature {C}
    19.598,                  !- April Ground Temperature {C}
    20.002,                  !- May Ground Temperature {C}
    21.640,                  !- June Ground Temperature {C}
    22.225,                  !- July Ground Temperature {C}
    22.375,                  !- August Ground Temperature {C}
    21.449,                  !- September Ground Temperature {C}
    20.121,                  !- October Ground Temperature {C}
    19.802,                  !- November Ground Temperature {C}
    19.633;                  !- December Ground Temperature {C}


!-   ===========  ALL OBJECTS IN CLASS: SITE:GROUNDREFLECTANCE ===========

Site:GroundReflectance,
    0.2,                     !- January Ground Reflectance {dimensionless}
    0.2,                     !- February Ground Reflectance {dimensionless}
    0.2,                     !- March Ground Reflectance {dimensionless}
    0.2,                     !- April Ground Reflectance {dimensionless}
    0.2,                     !- May Ground Reflectance {dimensionless}
    0.2,                     !- June Ground Reflectance {dimensionless}
    0.2,                     !- July Ground Reflectance {dimensionless}
    0.2,                     !- August Ground Reflectance {dimensionless}
    0.2,                     !- September Ground Reflectance {dimensionless}
    0.2,                     !- October Ground Reflectance {dimensionless}
    0.2,                     !- November Ground Reflectance {dimensionless}
    0.2;                     !- December Ground Reflectance {dimensionless}


!-   ===========  ALL OBJECTS IN CLASS: SITE:GROUNDREFLECTANCE:SNOWMODIFIER ===========

Site:GroundReflectance:SnowModifier,
    1.0,                     !- Ground Reflected Solar Modifier
    1.0;                     !- Daylighting Ground Reflected Solar Modifier


!-   ===========  ALL OBJECTS IN CLASS: SCHEDULETYPELIMITS ===========

! Not limited
ScheduleTypeLimits,
    Any Number;              !- Name

ScheduleTypeLimits,
    Fraction,                !- Name
    0.0,                     !- Lower Limit Value
    1.0,                     !- Upper Limit Value
    CONTINUOUS;              !- Numeric Type

ScheduleTypeLimits,
    Temperature,             !- Name
    -60,                     !- Lower Limit Value
    200,                     !- Upper Limit Value
    CONTINUOUS;              !- Numeric Type

ScheduleTypeLimits,
    Control Type,            !- Name
    0,                       !- Lower Limit Value
    4,                       !- Upper Limit Value
    DISCRETE;                !- Numeric Type

ScheduleTypeLimits,
    On/Off,                  !- Name
    0,                       !- Lower Limit Value
    1,                       !- Upper Limit Value
    DISCRETE;                !- Numeric Type


!-   ===========  ALL OBJECTS IN CLASS: SCHEDULE:DAY:HOURLY ===========

! -------------------- Control type schedules (for heating & cooling) ----------------------
Schedule:Day:Hourly,
    Summer Control Type Day Sch,  !- Name
    Control Type,            !- Schedule Type Limits Name
    4,                       !- Hour 1
    4,                       !- Hour 2
    4,                       !- Hour 3
    4,                       !- Hour 4
    4,                       !- Hour 5
    4,                       !- Hour 6
    4,                       !- Hour 7
    4,                       !- Hour 8
    4,                       !- Hour 9
    4,                       !- Hour 10
    4,                       !- Hour 11
    4,                       !- Hour 12
    4,                       !- Hour 13
    4,                       !- Hour 14
    4,                       !- Hour 15
    4,                       !- Hour 16
    4,                       !- Hour 17
    4,                       !- Hour 18
    4,                       !- Hour 19
    4,                       !- Hour 20
    4,                       !- Hour 21
    4,                       !- Hour 22
    4,                       !- Hour 23
    4;                       !- Hour 24

Schedule:Day:Hourly,
    Winter Control Type Day Sch,  !- Name
    Control Type,            !- Schedule Type Limits Name
    4,                       !- Hour 1
    4,                       !- Hour 2
    4,                       !- Hour 3
    4,                       !- Hour 4
    4,                       !- Hour 5
    4,                       !- Hour 6
    4,                       !- Hour 7
    4,                       !- Hour 8
    4,                       !- Hour 9
    4,                       !- Hour 10
    4,                       !- Hour 11
    4,                       !- Hour 12
    4,                       !- Hour 13
    4,                       !- Hour 14
    4,                       !- Hour 15
    4,                       !- Hour 16
    4,                       !- Hour 17
    4,                       !- Hour 18
    4,                       !- Hour 19
    4,                       !- Hour 20
    4,                       !- Hour 21
    4,                       !- Hour 22
    4,                       !- Hour 23
    4;                       !- Hour 24


!-   ===========  ALL OBJECTS IN CLASS: SCHEDULE:WEEK:DAILY ===========

Schedule:Week:Daily,
    Summer Control Type Week Sch,  !- Name
    Summer Control Type Day Sch,  !- Sunday Schedule:Day Name
    Summer Control Type Day Sch,  !- Monday Schedule:Day Name
    Summer Control Type Day Sch,  !- Tuesday Schedule:Day Name
    Summer Control Type Day Sch,  !- Wednesday Schedule:Day Name
    Summer Control Type Day Sch,  !- Thursday Schedule:Day Name
    Summer Control Type Day Sch,  !- Friday Schedule:Day Name
    Summer Control Type Day Sch,  !- Saturday Schedule:Day Name
    Summer Control Type Day Sch,  !- Holiday Schedule:Day Name
    Summer Control Type Day Sch,  !- SummerDesignDay Schedule:Day Name
    Summer Control Type Day Sch,  !- WinterDesignDay Schedule:Day Name
    Summer Control Type Day Sch,  !- CustomDay1 Schedule:Day Name
    Summer Control Type Day Sch;  !- CustomDay2 Schedule:Day Name

Schedule:Week:Daily,
    Winter Control Type Week Sch,  !- Name
    Winter Control Type Day Sch,  !- Sunday Schedule:Day Name
    Winter Control Type Day Sch,  !- Monday Schedule:Day Name
    Winter Control Type Day Sch,  !- Tuesday Schedule:Day Name
    Winter Control Type Day Sch,  !- Wednesday Schedule:Day Name
    Winter Control Type Day Sch,  !- Thursday Schedule:Day Name
    Winter Control Type Day Sch,  !- Friday Schedule:Day Name
    Winter Control Type Day Sch,  !- Saturday Schedule:Day Name
    Winter Control Type Day Sch,  !- Holiday Schedule:Day Name
    Winter Control Type Day Sch,  !- SummerDesignDay Schedule:Day Name
    Winter Control Type Day Sch,  !- WinterDesignDay Schedule:Day Name
    Winter Control Type Day Sch,  !- CustomDay1 Schedule:Day Name
    Winter Control Type Day Sch;  !- CustomDay2 Schedule:Day Name


!-   ===========  ALL OBJECTS IN CLASS: SCHEDULE:YEAR ===========

Schedule:Year,
    Zone Control Type Sched, !- Name
    Control Type,            !- Schedule Type Limits Name
    Winter Control Type Week Sch,  !- Schedule:Week Name 1
    1,                       !- Start Month 1
    1,                       !- Start Day 1
    4,                       !- End Month 1
    15,                      !- End Day 1
    Summer Control Type Week Sch,  !- Schedule:Week Name 2
    4,                       !- Start Month 2
    16,                      !- Start Day 2
    10,                      !- End Month 2
    15,                      !- End Day 2
    Winter Control Type Week Sch,  !- Schedule:Week Name 3
    10,                      !- Start Month 3
    16,                      !- Start Day 3
    12,                      !- End Month 3
    31;                      !- End Day 3


!-   ===========  ALL OBJECTS IN CLASS: SCHEDULE:COMPACT ===========

! Type
! Type
! All days in year
! All hours in day
Schedule:Compact,
    On,                      !- Name
    Any Number,              !- Schedule Type Limits Name
    Through: 12/31,          !- Field 1
    For: AllDays,            !- Field 2
    Until: 24:00,            !- Field 3
    1;                       !- Field 4

! Type
! Type
! All days in year
! All hours in day
Schedule:Compact,
    Off,                     !- Name
    Any Number,              !- Schedule Type Limits Name
    Through: 12/31,          !- Field 1
    For: AllDays,            !- Field 2
    Until: 24:00,            !- Field 3
    0;                       !- Field 4

! Type
! Type
! All days in year
! All hours in day
!Schedule:Compact,
!    Work efficiency,         !- Name
!    Any Number,              !- Schedule Type Limits Name
!    Through: 12/31,          !- Field 1
!    For: AllDays,            !- Field 2
!    Until: 24:00,            !- Field 3
!    0;                       !- Field 4
!Schedule:Compact,
!    AirVelocitySchedule,     !- Name
!    Any Number,              !- Schedule Type Limits Name
!    Through: 12/31,          !- Field 1
!    For: AllDays,            !- Field 2
!    Until: 24:00,            !- Field 3
!    .137;                    !- Field 4
!Schedule:Compact,
!    FANAVAILSCHED,           !- Name
!    Fraction,                !- Schedule Type Limits Name
!    Through: 12/31,          !- Field 1
!    For: Weekdays,           !- Field 2
!    Until: 6:00,             !- Field 3
!    0,                       !- Field 4
!    Until: 18:00,            !- Field 5
!    1,                       !- Field 6
!    Until: 24:00,            !- Field 7
!    0,                       !- Field 8
!    For: Weekends SummerDesignDay WinterDesignDay CustomDay1 CustomDay2 Holidays,  !- Field 9
!    Until: 24:00,            !- Field 10
!    0;                       !- Field 11
Schedule:Compact,
    Min OA Sched,            !- Name
    Fraction,                !- Schedule Type Limits Name
    Through: 12/31,          !- Field 1
    For: Alldays,            !- Field 2
    Until: 5:00,             !- Field 3
    0.02,                    !- Field 4
    Until: 19:00,            !- Field 5
    1.00,                    !- Field 6
    Until: 24:00,            !- Field 7
    0.02;                    !- Field 8

Schedule:Compact,
    CW Loop Temp Schedule,   !- Name
    Temperature,             !- Schedule Type Limits Name
    Through: 12/31,          !- Field 1
    For: Alldays,            !- Field 2
    Until: 24:00,            !- Field 3
    7.2;                     !- Field 4

Schedule:Compact,
    HW Loop Temp Schedule,   !- Name
    Temperature,             !- Schedule Type Limits Name
    Through: 12/31,          !- Field 1
    For: Alldays,            !- Field 2
    Until: 24:00,            !- Field 3
    82.00;                   !- Field 4

Schedule:Compact,
    Htg-SetP-Sch,            !- Name
    Temperature,             !- Schedule Type Limits Name
    Through: 12/31,          !- Field 1
    For: Weekdays CustomDay1 CustomDay2 SummerDesignDay WinterDesignDay,  !- Field 2
    Until: 5:00,             !- Field 3
    15,                      !- Field 4
    Until: 19:00,            !- Field 5
    21.10,                   !- Field 6
    Until: 24:00,            !- Field 7
    15,                      !- Field 8
    For: Weekends Holidays,  !- Field 9
    Until: 7:00,             !- Field 10
    15,                      !- Field 11
    Until: 13:00,            !- Field 12
    21.10,                   !- Field 13
    Until: 24:00,            !- Field 14
    15;                      !- Field 15

Schedule:Compact,
    Clg-SetP-Sch,            !- Name
    Temperature,             !- Schedule Type Limits Name
    Through: 12/31,          !- Field 1
    For: Weekdays CustomDay1 CustomDay2 SummerDesignDay WinterDesignDay,  !- Field 2
    Until: 5:00,             !- Field 3
    30,                      !- Field 4
    Until: 19:00,            !- Field 5
    24.4,                    !- Field 6
    Until: 24:00,            !- Field 7
    30,                      !- Field 8
    For: Weekends Holidays,  !- Field 9
    Until: 7:00,             !- Field 10
    30,                      !- Field 11
    Until: 13:00,            !- Field 12
    24.4,                    !- Field 13
    Until: 24:00,            !- Field 14
    30;                      !- Field 15

Schedule:Compact,
    HeatingAvailSch,         !- Name
    Fraction,                !- Schedule Type Limits Name
    Through: 4/15,           !- Field 1
    For: Alldays,            !- Field 2
    Until: 24:00,            !- Field 3
    1.0,                     !- Field 4
    Through: 10/15,          !- Field 5
    For: Alldays,            !- Field 6
    Until: 24:00,            !- Field 7
    1,                       !- Field 8
    Through: 12/31,          !- Field 9
    For: Alldays,            !- Field 10
    Until: 24:00,            !- Field 11
    1.0;                     !- Field 12

Schedule:Compact,
    CoolingAvailSch,         !- Name
    Fraction,                !- Schedule Type Limits Name
    Through: 4/15,           !- Field 1
    For: Alldays,            !- Field 2
    Until: 24:00,            !- Field 3
    1,                       !- Field 4
    Through: 10/15,          !- Field 5
    For: Alldays,            !- Field 6
    Until: 5:00,             !- Field 7
    1,                       !- Field 8
    Until: 19:00,            !- Field 9
    1,                       !- Field 10
    Until: 24:00,            !- Field 11
    1,                       !- Field 12
    Through: 12/31,          !- Field 13
    For: Alldays,            !- Field 14
    Until: 24:00,            !- Field 15
    1;                       !- Field 16

Schedule:Compact,
    AHU1AvailSch,            !- Name
    Fraction,                !- Schedule Type Limits Name
    Through: 12/31,          !- Field 1
    For: Alldays,            !- Field 2
    Until: 5:00,             !- Field 3
    1,                       !- Field 4
    Until: 19:00,            !- Field 5
    1,                       !- Field 6
    Until: 24:00,            !- Field 7
    1;                       !- Field 8

Schedule:Compact,
    AHU2AvailSch,            !- Name
    Fraction,                !- Schedule Type Limits Name
    Through: 12/31,          !- Field 1
    For: Alldays,            !- Field 2
    Until: 5:00,             !- Field 3
    1,                       !- Field 4
    Until: 19:00,            !- Field 5
    1,                       !- Field 6
    Until: 24:00,            !- Field 7
    1;                       !- Field 8

Schedule:Compact,
    OfficeActSchd,           !- Name
    Any Number,              !- Schedule Type Limits Name
    Through: 12/31,          !- Field 1
    For: Alldays,            !- Field 2
    Until: 24:00,            !- Field 3
    110;                     !- Field 4

Schedule:Compact,
    OfficePeopleSch,         !- Name
    Fraction,                !- Schedule Type Limits Name
    Through: 12/31,          !- Field 1
    For: Weekdays SummerDesignDay,  !- Field 2
    Until: 6:00,             !- Field 3
    0,                       !- Field 4
    Until: 7:00,             !- Field 5
    0.1,                     !- Field 6
    Until: 8:00,             !- Field 7
    0.2,                     !- Field 8
    Until: 12:00,            !- Field 9
    0.95,                    !- Field 10
    Until: 13:00,            !- Field 11
    0.5,                     !- Field 12
    Until: 17:00,            !- Field 13
    0.95,                    !- Field 14
    Until: 18:00,            !- Field 15
    0.3,                     !- Field 16
    Until: 22:00,            !- Field 17
    0.1,                     !- Field 18
    Until: 24:00,            !- Field 19
    0.05,                    !- Field 20
    For: Weekends WinterDesignDay CustomDay1 CustomDay2 Holidays,  !- Field 21
    Until: 24:00,            !- Field 22
    0;                       !- Field 23

Schedule:Compact,
    OfficePeopleSch-backup,  !- Name
    Fraction,                !- Schedule Type Limits Name
    Through: 12/31,          !- Field 1
    For: Weekdays,           !- Field 2
    Until: 6:00,             !- Field 3
    0,                       !- Field 4
    Until: 7:00,             !- Field 5
    0.1,                     !- Field 6
    Until: 8:00,             !- Field 7
    0.2,                     !- Field 8
    Until: 12:00,            !- Field 9
    0.95,                    !- Field 10
    Until: 13:00,            !- Field 11
    0.5,                     !- Field 12
    Until: 17:00,            !- Field 13
    0.95,                    !- Field 14
    Until: 18:00,            !- Field 15
    0.3,                     !- Field 16
    Until: 22:00,            !- Field 17
    0.1,                     !- Field 18
    Until: 24:00,            !- Field 19
    0.05,                    !- Field 20
    For: Weekends SummerDesignDay WinterDesignDay CustomDay1 CustomDay2 Holidays,  !- Field 21
    Until: 24:00,            !- Field 22
    0;                       !- Field 23

Schedule:Compact,
    ClassRMPeopleSch,        !- Name
    Fraction,                !- Schedule Type Limits Name
    Through: 12/31,          !- Field 1
    For: Weekdays SummerDesignDay,  !- Field 2
    Until: 7:00,             !- Field 3
    0,                       !- Field 4
    Until: 9:00,             !- Field 5
    .8,                      !- Field 6
    Until: 10:00,            !- Field 7
    0,                       !- Field 8
    Until: 12:00,            !- Field 9
    .8,                      !- Field 10
    Until: 13:00,            !- Field 11
    0,                       !- Field 12
    Until: 15:00,            !- Field 13
    .8,                      !- Field 14
    Until: 16:00,            !- Field 15
    0,                       !- Field 16
    Until: 18:00,            !- Field 17
    .8,                      !- Field 18
    Until: 24:00,            !- Field 19
    0,                       !- Field 20
    For: Weekends WinterDesignDay CustomDay1 CustomDay2 Holidays,  !- Field 21
    Until: 24:00,            !- Field 22
    0;                       !- Field 23

Schedule:Compact,
    ConfRMPeopleSch,         !- Name
    Fraction,                !- Schedule Type Limits Name
    Through: 12/31,          !- Field 1
    For: Weekdays SummerDesignDay,  !- Field 2
    Until: 10:00,            !- Field 3
    0,                       !- Field 4
    Until: 11:00,            !- Field 5
    0.5,                     !- Field 6
    Until: 14:00,            !- Field 7
    0,                       !- Field 8
    Until: 15:00,            !- Field 9
    0.5,                     !- Field 10
    Until: 24:00,            !- Field 11
    0,                       !- Field 12
    For: Weekends WinterDesignDay CustomDay1 CustomDay2 Holidays,  !- Field 13
    Until: 24:00,            !- Field 14
    0;                       !- Field 15
